LTspice 24.1.10 for Windows
Circuit: D:\constructing_projects\21A-Distortion-Mearsurement\hardware\stimulation\filter.net
Start Time: Wed Jul 15 09:44:11 2026
solver = Normal
Maximum thread count: 16
tnom = 27
temp = 27
method = trap
WARNING: Node dc is floating.
WARNING: Node nc_11 is floating.

Direct Newton iteration failed to find .op point.  (Use ".option noopiter" to skip.)
Starting Gmin stepping
Gmin = 10
Gmin = 1.07374
Gmin = 0.115292
Gmin = 0.0123794
Gmin = 0.00132923
Gmin = 0.000142725
Gmin = 1.5325e-05
Gmin = 1.6455e-06
Gmin = 1.76685e-07
Gmin = 1.89714e-08
Gmin = 2.03704e-09
Gmin = 2.18725e-10
Gmin = 2.34854e-11
Gmin = 2.52173e-12
Gmin = 2.70769e-13
Gmin = 0
Gmin stepping succeeded in finding the operating point.

Total elapsed time: 0.067 seconds.

Files loaded:
D:\constructing_projects\21A-Distortion-Mearsurement\hardware\stimulation\filter.net
C:\Users\lenovo\AppData\Local\LTspice\lib\sub\LTC7.lib

